<?xml version="1.0" encoding="UTF-8"?>

<!-- Generated realistic traffic flow for SUMO simulation -->

<routes xmlns:xsi="http://www.w3.org/2001/XMLSchema-instance" xsi:noNamespaceSchemaLocation="http://sumo.dlr.de/xsd/routes_file.xsd">

    <!-- Vehicle Types -->
    <vType id="car" length="5.00" maxSpeed="33.33" color="red" laneChangeModel="LC2013" lcStrategic="1.0" lcSpeedGain="1.0" lcKeepRight="0.2" accel="2.6" decel="4.5" sigma="0.5"/>
    <vType id="truck" length="12.00" maxSpeed="25.00" color="blue" laneChangeModel="LC2013" lcStrategic="1.0" lcSpeedGain="0.8" lcKeepRight="0.4" accel="1.0" decel="3.0" sigma="0.6"/>
    <vType id="bus" length="12.00" maxSpeed="20.00" color="yellow" laneChangeModel="LC2013" lcStrategic="1.0" lcSpeedGain="0.7" lcKeepRight="0.5" accel="1.2" decel="2.5" sigma="0.5"/>
    <vType id="motorcycle" length="2.50" maxSpeed="40.00" color="green" laneChangeModel="LC2013" lcStrategic="1.2" lcSpeedGain="1.2" lcKeepRight="0.1" accel="3.0" decel="4.5" sigma="0.3"/>

    <!-- Traffic Flows -->
    <!-- Peak traffic on the highway -->
    <flow id="car_highway_peak" type="car" begin="0.00" end="1800.00" number="7000" departPos="free" departSpeed="max" departLane="random" from="highway_entry" to="highway_exit"/>
    <flow id="truck_highway_peak" type="truck" begin="0.00" end="1800.00" number="800" departPos="free" departSpeed="max" departLane="random" from="highway_entry" to="highway_exit"/>
    <flow id="bus_highway_peak" type="bus" begin="0.00" end="1800.00" number="200" departPos="free" departSpeed="max" departLane="random" from="highway_entry" to="highway_exit"/>
    <flow id="motorcycle_highway_peak" type="motorcycle" begin="0.00" end="1800.00" number="500" departPos="free" departSpeed="max" departLane="random" from="highway_entry" to="highway_exit"/>

    <!-- Ramp traffic during peak hours -->
    <flow id="car_ramp_peak" type="car" begin="0.00" end="1800.00" number="2000" departPos="free" departSpeed="max" departLane="random" from="ramp_entry" to="highway_exit"/>
    <flow id="truck_ramp_peak" type="truck" begin="0.00" end="1800.00" number="300" departPos="free" departSpeed="max" departLane="random" from="ramp_entry" to="highway_exit"/>

    <!-- Off-peak traffic on the highway -->
    <flow id="car_highway_offpeak" type="car" begin="1800.00" end="3600.00" number="3000" departPos="free" departSpeed="max" departLane="random" from="highway_entry" to="highway_exit"/>
    <flow id="truck_highway_offpeak" type="truck" begin="1800.00" end="3600.00" number="400" departPos="free" departSpeed="max" departLane="random" from="highway_entry" to="highway_exit"/>
    <flow id="bus_highway_offpeak" type="bus" begin="1800.00" end="3600.00" number="100" departPos="free" departSpeed="max" departLane="random" from="highway_entry" to="highway_exit"/>
    <flow id="motorcycle_highway_offpeak" type="motorcycle" begin="1800.00" end="3600.00" number="300" departPos="free" departSpeed="max" departLane="random" from="highway_entry" to="highway_exit"/>

    <!-- Ramp traffic during off-peak hours -->
    <flow id="car_ramp_offpeak" type="car" begin="1800.00" end="3600.00" number="500" departPos="free" departSpeed="max" departLane="random" from="ramp_entry" to="highway_exit"/>
    <flow id="truck_ramp_offpeak" type="truck" begin="1800.00" end="3600.00" number="100" departPos="free" departSpeed="max" departLane="random" from="ramp_entry" to="highway_exit"/>

</routes>
